
 &time_control
 run_days                            = 0,
 run_hours                           = 24,
 run_minutes                         = 0,
 run_seconds                         = 0,
 start_year                          = 2012, 2012, 2012, 2012,
 start_month                         = 12,   12,   12,   12,
 start_day                           = 29,   29,   29,   29,
 start_hour                          = 12,   12,   12,   12,
 end_year                            = 2012, 2012, 2012, 2012,
 end_month                           = 12,   12,   12,   12,
 end_day                             = 30,   30,   30,   30,
 end_hour                            = 12,   12,   12,   12,  
 interval_seconds                    = 3600
 input_from_file                     = .true.,.true.,.true.,.true.,
 history_interval_s                  = 3600, 600,  60,   10,  
 frames_per_outfile                  = 1,    1,    1,    1,
 restart                             = .false.,
 restart_interval                    = 864000,
 io_form_history                     = 2
 io_form_restart                     = 2
 io_form_input                       = 2
 io_form_boundary                    = 2
 io_form_auxinput2                   = 2
 io_form_auxinput4                   = 2
 auxinput4_inname                    = "wrflowinp_d<domain>"
 auxinput4_interval                  = 60,
 /

 &domains
 time_step                           = 30,
 time_step_fract_num                 = 0,
 time_step_fract_den                 = 1,
 max_dom                             = 4,
 e_we                                = 277,  196,  196,  331,
 e_sn                                = 247,  196,  196,  331,
 e_vert                              = 89,   89,   89,   89,
 p_top_requested                     = 1000,
 num_metgrid_levels                  = 38,
 num_metgrid_soil_levels             = 4,
 dx                                  = 9000, 3000, 1000, 200,
 dy                                  = 9000, 3000, 1000, 200,
 grid_id                             = 1,    2,    3,    4,
 parent_id                           = 0,    1,    2,    3,
 i_parent_start                      = 1,    90,   62,   73,
 j_parent_start                      = 1,    103,  82,   69,
 parent_grid_ratio                   = 1,    3,    3,    5,
 parent_time_step_ratio              = 1,    6,    10,   5,
 feedback                            = 0,
 smooth_option                       = 0,
 smooth_cg_topo                      = .true.,
 eta_levels                          = 1.0, 0.9936666488647461, 0.9811919331550598, 0.9689090847969055, 0.9567221999168396, 0.9447273015975952, 0.9269747734069824, 0.9038484692573547, 0.8812980055809021, 0.8593232035636902, 0.8378282785415649, 0.8169090747833252, 0.7766060829162598, 0.7382222414016724, 0.7016615867614746, 0.6670202016830444, 0.6340100765228271, 0.6025353670120239, 0.5726919174194336, 0.5442878603935242, 0.517227292060852, 0.4915100932121277, 0.46704038977622986, 0.4437222182750702, 0.4216515123844147, 0.40054041147232056, 0.3805808126926422, 0.3614848554134369, 0.3433484733104706, 0.32617172598838806, 0.3097626268863678, 0.2941212058067322, 0.2793434262275696, 0.26514142751693726, 0.25180304050445557, 0.23894444108009338, 0.22685353457927704, 0.2152424305677414, 0.20430302619934082, 0.19384343922138214, 0.18386363983154297, 0.17445959150791168, 0.1654393970966339, 0.15689899027347565, 0.1487424224615097, 0.14096969366073608, 0.13358080387115479, 0.1265757530927658, 0.12348853960269836, 0.1204013261126309, 0.11731411262256342, 0.11422689913249598, 0.11113968564242853, 0.10805247215236105, 0.10496525866229359, 0.10187804517222614, 0.09879083168215869, 0.09570361819209122, 0.09261640470202376, 0.0895291912119563, 0.08644197772188886, 0.0833547642318214, 0.08026755074175392, 0.07718033725168646, 0.07409312376161903, 0.07100591027155155, 0.06791869678148407, 0.06483148329141664, 0.061744269801349186, 0.05865705631128171, 0.055569842821214244, 0.05248262933114679, 0.04939541584107934, 0.04630820235101188, 0.043220988860944415, 0.040133775370876965, 0.037046561880809514, 0.033959348390742036, 0.030872134900674572, 0.027784921410607122, 0.02469770792053967, 0.021610494430472235, 0.018523280940404743, 0.015436067450337293, 0.012348853960269843, 0.00926164047020235, 0.0061744269801349005, 0.0030872134900674503, 0.0,
 /

 &physics
 mp_physics                          = 6,    6,    6,    6,
 cu_physics                          = 1,    0,    0,    0,
 ra_lw_physics                       = 1,    1,    1,    1,
 ra_sw_physics                       = 2,    2,    2,    2,
 bl_pbl_physics                      = 2,    2,    2,    0,
 sf_sfclay_physics                   = 2,    2,    2,    2,
 sf_surface_physics                  = 2,    2,    2,    2,
 bl_mynn_tkebudget                   = 0,    0,    0,    0,
 prec_acc_dt                         = 60.,  10.,  1.,   0.,
 cudt                                = 0,    0,    0,    0,
 swint_opt                           = 1, 
 radt                                = 10,   10,   10,   10,
 bldt                                = 0,    0,    0,    0,
 isfflx                              = 1,
 ifsnow                              = 1,
 icloud                              = 1,
 surface_input_source                = 1,
 num_land_cat                        = 21,
 num_soil_layers                     = 4,
 sf_urban_physics                    = 0,    0,    0,    0,
 sst_update                          = 1,
 /

 &fdda
 /

 &dynamics
 hybrid_opt                          = 2,
 etac                                = 0.2, 
 w_damping                           = 0,
 diff_opt                            = 1,    1,    1,    2,
 km_opt                              = 4,    4,    4,    2,
 diff_6th_opt                        = 2,    2,    2,    2,
 diff_6th_factor                     = 0.12, 0.12, 0.12, 0.12,
 base_temp                           = 290.,
 damp_opt                            = 3,
 zdamp                               = 10000.,10000.,10000.,10000.,
 dampcoef                            = 0.2,  0.2,  0.2,  0.2,
 khdif                               = 0,    0,    0,    0,
 kvdif                               = 0,    0,    0,    0,
 non_hydrostatic                     = .true.,.true.,.true.,.true.,
 moist_adv_opt                       = 1,    1,    1,    1,
 scalar_adv_opt                      = 1,    1,    1,    1,
 h_mom_adv_order                     = 5,
 v_mom_adv_order                     = 5,
 h_sca_adv_order                     = 5,
 v_sca_adv_order                     = 5,
 gwd_opt                             = 1,    0,    0,    0,
 sfs_opt                             = 0,
 /

 &bdy_control
 spec_bdy_width                      = 5,
 spec_zone                           = 1,
 relax_zone                          = 4,
 specified                           = .true.,
 nested                              = .false.,.true.,.true.,.true.,
 spec_exp                            = 0.33,
 /

 &grib2
 /

 &namelist_quilt
 nio_tasks_per_group = 0,
 nio_groups = 1,
 /
